CID 58374005 edited
  -INDIGO-10082014492D

  5  4  0  0  0  0  0  0  0  0999 V2000
    9.3739   -2.8820    0.0000 O   0  0  0  0  0  0  0  0  0  0  0  0
    9.1588   -3.6784    0.0000 C   0  0  0  0  0  0  0  0  0  0  0  0
    9.7410   -4.2630    0.0000 C   0  0  0  0  0  0  0  0  0  0  0  0
    8.3615   -3.8904    0.0000 C   0  0  0  0  0  0  0  0  0  0  0  0
    7.5430   -3.5061    0.0000 H   0  0  0  0  0  0  0  0  0  0  0  0
  1  2  1  0  0  0  0
  2  3  1  0  0  0  0
  2  4  2  3  0  0  0
  4  5  1  0  0  0  0
M  RAD  1   4   2
M  END
$$$$
58374005
  -INDIGO-10082014492D

 79 83  0  0  1  0  0  0  0  0999 V2000
    4.9076    3.8060    0.0000 Cl  0  0  0  0  0  0  0  0  0  0  0  0
    8.3373   -1.6066    0.0000 S   0  0  0  0  0  0  0  0  0  0  0  0
   15.1715   -2.1022    0.0000 S   0  0  0  0  0  0  0  0  0  0  0  0
   10.9173    0.6061    0.0000 O   0  0  0  0  0  0  0  0  0  0  0  0
    9.2033    1.8934    0.0000 O   0  0  0  0  0  0  0  0  0  0  0  0
    7.4713    1.8934    0.0000 O   0  0  0  0  0  0  0  0  0  0  0  0
    2.6782    1.7986    0.0000 O   0  0  0  0  0  0  0  0  0  0  0  0
   12.1445   -0.5971    0.0000 O   0  0  0  0  0  0  0  0  0  0  0  0
   11.3621   -3.4933    0.0000 O   0  0  0  0  0  0  0  0  0  0  0  0
    4.4918    5.7623    0.0000 O   0  0  0  0  0  0  0  0  0  0  0  0
    2.5896    6.3803    0.0000 O   0  0  0  0  0  0  0  0  0  0  0  0
   11.5462   -6.1326    0.0000 O   0  0  0  0  0  0  0  0  0  0  0  0
   12.7734   -4.9104    0.0000 O   0  0  0  0  0  0  0  0  0  0  0  0
    5.7392   -0.1066    0.0000 N   0  0  0  0  0  0  0  0  0  0  0  0
    9.2033   -0.1066    0.0000 N   0  0  0  0  0  0  0  0  0  0  0  0
    4.3724    2.1587    0.0000 N   0  0  0  0  0  0  0  0  0  0  0  0
   10.9173   -1.8193    0.0000 N   0  0  0  0  0  0  0  0  0  0  0  0
   12.3286   -3.2364    0.0000 N   0  0  0  0  0  0  0  0  0  0  0  0
   13.9161   -1.0814    0.0000 N   0  0  0  0  0  0  0  0  0  0  0  0
   15.5456   -0.3599    0.0000 N   0  0  0  0  0  0  0  0  0  0  0  0
    4.7611   -0.3145    0.0000 C   0  0  0  0  0  0  0  0  0  0  0  0
    6.2392   -0.9726    0.0000 C   0  0  0  0  0  0  0  0  0  0  0  0
    6.6053    0.3934    0.0000 C   0  0  0  0  0  0  0  0  0  0  0  0
    5.5701   -1.7158    0.0000 C   0  0  0  0  0  0  0  0  0  0  0  0
    4.6566   -1.3090    0.0000 C   0  0  0  0  0  0  0  0  0  0  0  0
    5.5313    0.8715    0.0000 C   0  0  0  0  0  0  0  0  0  0  0  0
    7.4713   -0.1066    0.0000 C   0  0  0  0  0  0  0  0  0  0  0  0
    4.5803    1.1806    0.0000 C   0  0  0  0  0  0  0  0  0  0  0  0
    9.2033   -1.1066    0.0000 C   0  0  1  0  0  0  0  0  0  0  0  0
    8.3373    0.3934    0.0000 C   0  0  0  0  0  0  0  0  0  0  0  0
    7.4713   -1.1066    0.0000 C   0  0  0  0  0  0  0  0  0  0  0  0
   10.2116   -1.1107    0.0000 C   0  0  1  0  0  0  0  0  0  0  0  0
   10.2116   -0.1025    0.0000 C   0  0  0  0  0  0  0  0  0  0  0  0
    8.3373    1.3934    0.0000 C   0  0  0  0  0  0  0  0  0  0  0  0
    3.4213    2.4677    0.0000 C   0  0  0  0  0  0  0  0  0  0  0  0
   11.8837   -1.5625    0.0000 C   0  0  0  0  0  0  0  0  0  0  0  0
    3.2134    3.4459    0.0000 C   0  0  0  0  0  0  0  0  0  0  0  0
   12.5894   -2.2710    0.0000 C   0  0  0  0  0  0  0  0  0  0  0  0
    3.9565    4.1150    0.0000 C   0  0  0  0  0  0  0  0  0  0  0  0
    2.2623    3.7549    0.0000 C   0  0  0  0  0  0  0  0  0  0  0  0
   13.5558   -2.0142    0.0000 C   0  0  0  0  0  0  0  0  0  0  0  0
    3.7486    5.0931    0.0000 C   0  0  0  0  0  0  0  0  0  0  0  0
    2.0544    4.7330    0.0000 C   0  0  0  0  0  0  0  0  0  0  0  0
    2.7976    5.4022    0.0000 C   0  0  0  0  0  0  0  0  0  0  0  0
   14.3317   -2.6451    0.0000 C   0  0  0  0  0  0  0  0  0  0  0  0
   14.9146   -1.1357    0.0000 C   0  0  0  0  0  0  0  0  0  0  0  0
   11.1013   -4.4586    0.0000 C   0  0  0  0  0  0  0  0  0  0  0  0
   11.8070   -5.1672    0.0000 C   0  0  0  0  0  0  0  0  0  0  0  0
   10.1349   -4.7155    0.0000 C   0  0  0  0  0  0  0  0  0  0  0  0
    6.6541   -1.4334    0.0000 H   0  0  0  0  0  0  0  0  0  0  0  0
    6.7408   -0.6082    0.0000 H   0  0  0  0  0  0  0  0  0  0  0  0
    4.6963    0.3021    0.0000 H   0  0  0  0  0  0  0  0  0  0  0  0
    4.1411   -0.3145    0.0000 H   0  0  0  0  0  0  0  0  0  0  0  0
    7.0038    0.8683    0.0000 H   0  0  0  0  0  0  0  0  0  0  0  0
    6.2067    0.8683    0.0000 H   0  0  0  0  0  0  0  0  0  0  0  0
    5.2601   -2.2527    0.0000 H   0  0  0  0  0  0  0  0  0  0  0  0
    4.0501   -1.1801    0.0000 H   0  0  0  0  0  0  0  0  0  0  0  0
    4.4650   -1.8987    0.0000 H   0  0  0  0  0  0  0  0  0  0  0  0
    6.0717   -2.0802    0.0000 H   0  0  0  0  0  0  0  0  0  0  0  0
    6.1510    0.8932    0.0000 H   0  0  0  0  0  0  0  0  0  0  0  0
    5.6176    1.4855    0.0000 H   0  0  0  0  0  0  0  0  0  0  0  0
    3.9606    1.1589    0.0000 H   0  0  0  0  0  0  0  0  0  0  0  0
    4.4940    0.5666    0.0000 H   0  0  0  0  0  0  0  0  0  0  0  0
    9.4216   -1.9281    0.0000 H   0  0  0  0  0  0  0  0  0  0  0  0
    6.8607   -0.9989    0.0000 H   0  0  0  0  0  0  0  0  0  0  0  0
    7.2592   -1.6892    0.0000 H   0  0  0  0  0  0  0  0  0  0  0  0
   10.7847   -0.8741    0.0000 H   0  0  0  0  0  0  0  0  0  0  0  0
    4.8331    2.5736    0.0000 H   0  0  0  0  0  0  0  0  0  0  0  0
   10.7556   -2.4178    0.0000 H   0  0  0  0  0  0  0  0  0  0  0  0
    9.2033    2.5134    0.0000 H   0  0  0  0  0  0  0  0  0  0  0  0
    1.8016    3.3400    0.0000 H   0  0  0  0  0  0  0  0  0  0  0  0
    1.4648    4.9246    0.0000 H   0  0  0  0  0  0  0  0  0  0  0  0
   14.2980   -3.2642    0.0000 H   0  0  0  0  0  0  0  0  0  0  0  0
    4.3629    6.3687    0.0000 H   0  0  0  0  0  0  0  0  0  0  0  0
    2.0000    6.5719    0.0000 H   0  0  0  0  0  0  0  0  0  0  0  0
   16.1577   -0.4581    0.0000 H   0  0  0  0  0  0  0  0  0  0  0  0
   15.3246    0.2194    0.0000 H   0  0  0  0  0  0  0  0  0  0  0  0
    9.5357   -4.8747    0.0000 H   0  0  0  0  0  0  0  0  0  0  0  0
   11.9837   -6.5719    0.0000 H   0  0  0  0  0  0  0  0  0  0  0  0
  1 39  1  0  0  0  0
  2 29  1  0  0  0  0
  2 31  1  0  0  0  0
  3 45  1  0  0  0  0
  3 46  1  0  0  0  0
  4 33  2  0  0  0  0
  5 34  1  0  0  0  0
  5 70  1  0  0  0  0
  6 34  2  0  0  0  0
  7 35  2  0  0  0  0
  8 36  2  0  0  0  0
  9 18  1  0  0  0  0
  9 47  1  0  0  0  0
 10 42  1  0  0  0  0
 10 74  1  0  0  0  0
 11 44  1  0  0  0  0
 11 75  1  0  0  0  0
 12 48  1  0  0  0  0
 12 79  1  0  0  0  0
 13 48  2  0  0  0  0
 14 21  1  0  0  0  0
 14 22  1  0  0  0  0
 14 23  1  0  0  0  0
 14 26  1  0  0  0  0
 15 29  1  0  0  0  0
 15 30  1  0  0  0  0
 15 33  1  0  0  0  0
 16 28  1  0  0  0  0
 16 35  1  0  0  0  0
 16 68  1  0  0  0  0
 32 17  1  1  0  0  0
 17 36  1  0  0  0  0
 17 69  1  0  0  0  0
 18 38  2  0  0  0  0
 19 41  1  0  0  0  0
 19 46  2  0  0  0  0
 20 46  1  0  0  0  0
 20 76  1  0  0  0  0
 20 77  1  0  0  0  0
 21 25  1  0  0  0  0
 21 52  1  0  0  0  0
 21 53  1  0  0  0  0
 22 24  1  0  0  0  0
 22 50  1  0  0  0  0
 22 51  1  0  0  0  0
 23 27  1  0  0  0  0
 23 54  1  0  0  0  0
 23 55  1  0  0  0  0
 24 25  1  0  0  0  0
 24 56  1  0  0  0  0
 24 59  1  0  0  0  0
 25 57  1  0  0  0  0
 25 58  1  0  0  0  0
 26 28  1  0  0  0  0
 26 60  1  0  0  0  0
 26 61  1  0  0  0  0
 27 30  2  0  0  0  0
 27 31  1  0  0  0  0
 28 62  1  0  0  0  0
 28 63  1  0  0  0  0
 29 32  1  0  0  0  0
 29 64  1  6  0  0  0
 30 34  1  0  0  0  0
 31 65  1  0  0  0  0
 31 66  1  0  0  0  0
 32 33  1  0  0  0  0
 32 67  1  0  0  0  0
 35 37  1  0  0  0  0
 36 38  1  0  0  0  0
 37 39  2  0  0  0  0
 37 40  1  0  0  0  0
 38 41  1  0  0  0  0
 39 42  1  0  0  0  0
 40 43  2  0  0  0  0
 40 71  1  0  0  0  0
 41 45  2  0  0  0  0
 42 44  2  0  0  0  0
 43 44  1  0  0  0  0
 43 72  1  0  0  0  0
 45 73  1  0  0  0  0
 47 48  1  0  0  0  0
 47 49  2  3  0  0  0
 49 78  1  0  0  0  0
M  CHG  1  14   1
M  RAD  1  49   2
M  END
>  <PUBCHEM_COMPOUND_CID>
58374005

>  <PUBCHEM_COMPOUND_CANONICALIZED>
1

>  <PUBCHEM_CACTVS_COMPLEXITY>
1440

>  <PUBCHEM_CACTVS_HBOND_ACCEPTOR>
15

>  <PUBCHEM_CACTVS_HBOND_DONOR>
7

>  <PUBCHEM_CACTVS_ROTATABLE_BOND>
13

>  <PUBCHEM_CACTVS_SUBSKEYS>
AAADceB7vABkAAAAAAAAAAAAAABYAWLAAAAwQAAAAAAQAAABwAAAHgYUCAAADC7F3iSxn5PYEgisAyXyfAKC8KllLnkIiJX+r9iLZrqj1jOUcQlk1hO5nae63BLOIAABAQABSABAAAICAAKQAAAAAAAAAA==

>  <PUBCHEM_IUPAC_OPENEYE_NAME>
(6R,7R)-7-[[(2Z)-2-(2-aminothiazol-4-yl)-2-(1-carboxyvinyloxyimino)acetyl]amino]-3-[[1-[2-[(2-chloro-3,4-dihydroxy-benzoyl)amino]ethyl]pyrrolidin-1-ium-1-yl]methyl]-8-oxo-5-thia-1-azabicyclo[4.2.0]oct-2-ene-2-carboxylic acid

>  <PUBCHEM_IUPAC_CAS_NAME>
(6R,7R)-7-[[(2Z)-2-(2-amino-4-thiazolyl)-2-(1-carboxyethenoxyimino)-1-oxoethyl]amino]-3-[[1-[2-[[(2-chloro-3,4-dihydroxyphenyl)-oxomethyl]amino]ethyl]-1-pyrrolidin-1-iumyl]methyl]-8-oxo-5-thia-1-azabicyclo[4.2.0]oct-2-ene-2-carboxylic acid

>  <PUBCHEM_IUPAC_NAME>
(6R,7R)-7-[[(2Z)-2-(2-amino-1,3-thiazol-4-yl)-2-(1-carboxyethenoxyimino)acetyl]amino]-3-[[1-[2-[(2-chloro-3,4-dihydroxybenzoyl)amino]ethyl]pyrrolidin-1-ium-1-yl]methyl]-8-oxo-5-thia-1-azabicyclo[4.2.0]oct-2-ene-2-carboxylic acid

>  <PUBCHEM_IUPAC_SYSTEMATIC_NAME>
(6R,7R)-7-[[(2Z)-2-(2-azanyl-1,3-thiazol-4-yl)-2-(3-oxidanyl-3-oxidanylidene-prop-1-en-2-yl)oxyimino-ethanoyl]amino]-3-[[1-[2-[[2-chloranyl-3,4-bis(oxidanyl)phenyl]carbonylamino]ethyl]pyrrolidin-1-ium-1-yl]methyl]-8-oxidanylidene-5-thia-1-azabicyclo[4.2.0]oct-2-ene-2-carboxylic acid

>  <PUBCHEM_IUPAC_TRADITIONAL_NAME>
(6R,7R)-7-[[(2Z)-2-(2-aminothiazol-4-yl)-2-(1-carboxyvinyloximino)acetyl]amino]-3-[[1-[2-[(2-chloro-3,4-dihydroxy-benzoyl)amino]ethyl]pyrrolidin-1-ium-1-yl]methyl]-8-keto-5-thia-1-azabicyclo[4.2.0]oct-2-ene-2-carboxylic acid

>  <PUBCHEM_IUPAC_INCHI>
InChI=1S/C29H29ClN7O10S2/c1-13(27(43)44)47-35-19(16-12-49-29(31)33-16)24(41)34-20-25(42)36-21(28(45)46)14(11-48-26(20)36)10-37(7-2-3-8-37)9-6-32-23(40)15-4-5-17(38)22(39)18(15)30/h1,4-5,12,20,26H,2-3,6-11H2,(H7-,31,32,33,34,35,38,39,40,41,43,44,45,46)/p+1/t20-,26-/m1/s1

>  <PUBCHEM_IUPAC_INCHIKEY>
KXJWNKARTRZASH-FQRUVTKNSA-O

>  <PUBCHEM_XLOGP3>
0.4

>  <PUBCHEM_EXACT_MASS>
735.11841

>  <PUBCHEM_MOLECULAR_FORMULA>
C29H30ClN7O10S2+

>  <PUBCHEM_MOLECULAR_WEIGHT>
736.1724

>  <PUBCHEM_OPENEYE_CAN_SMILES>
[CH]=C(C(=O)O)ON=C(C1=CSC(=N1)N)C(=O)NC2C3N(C2=O)C(=C(CS3)C[N+]4(CCCC4)CCNC(=O)C5=C(C(=C(C=C5)O)O)Cl)C(=O)O

>  <PUBCHEM_OPENEYE_ISO_SMILES>
[CH]=C(C(=O)O)O/N=C(/C1=CSC(=N1)N)\C(=O)N[C@H]2[C@@H]3N(C2=O)C(=C(CS3)C[N+]4(CCCC4)CCNC(=O)C5=C(C(=C(C=C5)O)O)Cl)C(=O)O

>  <PUBCHEM_CACTVS_TPSA>
308

>  <PUBCHEM_MONOISOTOPIC_WEIGHT>
735.11841

>  <PUBCHEM_TOTAL_CHARGE>
1

>  <PUBCHEM_HEAVY_ATOM_COUNT>
49

>  <PUBCHEM_ATOM_DEF_STEREO_COUNT>
2

>  <PUBCHEM_ATOM_UDEF_STEREO_COUNT>
0

>  <PUBCHEM_BOND_DEF_STEREO_COUNT>
1

>  <PUBCHEM_BOND_UDEF_STEREO_COUNT>
0

>  <PUBCHEM_ISOTOPIC_ATOM_COUNT>
0

>  <PUBCHEM_COMPONENT_COUNT>
1

>  <PUBCHEM_CACTVS_TAUTO_COUNT>
308

>  <PUBCHEM_COORDINATE_TYPE>
1
5
255

>  <PUBCHEM_BONDANNOTATIONS>
32  17  5
19  41  8
19  46  8
29  64  6
3  45  8
3  46  8
37  39  8
37  40  8
39  42  8
40  43  8
41  45  8
42  44  8
43  44  8

$$$$
