20749491
  -OEChem-06131119352D

  9  4  0     0  0  0  0  0  0999 V2000
    0.0369    0.0000    0.0000 Cl  0  5  0  0  0  0  0  0  0  0  0  0
    3.0739    0.2869    0.0000 Cl  0  5  0  0  0  0  0  0  0  0  0  0
    3.0739    2.7869    0.0000 Cl  0  5  0  0  0  0  0  0  0  0  0  0
    0.5369    3.0369    0.0000 C   0  0  0  0  0  0  0  0  0  0  0  0
    1.0739    3.3469    0.0000 H   0  0  0  0  0  0  0  0  0  0  0  0
    0.0000    2.7269    0.0000 H   0  0  0  0  0  0  0  0  0  0  0  0
    0.2269    3.5739    0.0000 H   0  0  0  0  0  0  0  0  0  0  0  0
    0.8469    2.5000    0.0000 H   0  0  0  0  0  0  0  0  0  0  0  0
    1.0369    0.0000    0.0000 H   1  3  0  0  0  0  0  0  0  0  0  0
  4  5  1  0  0  0  0
  4  6  1  0  0  0  0
  4  7  1  0  0  0  0
  4  8  1  0  0  0  0
M  CHG  4   1  -1   2  -1   3  -1   9   1
M  ISO  1   9   2
M  END
> <PUBCHEM_COMPOUND_CID>
20749491

> <PUBCHEM_COMPOUND_CANONICALIZED>
1

> <PUBCHEM_CACTVS_COMPLEXITY>
0

> <PUBCHEM_CACTVS_HBOND_ACCEPTOR>
3

> <PUBCHEM_CACTVS_HBOND_DONOR>
0

> <PUBCHEM_CACTVS_ROTATABLE_BOND>
0

> <PUBCHEM_CACTVS_SUBSKEYS>
AAADcYAAAAAGAAAAAAAAAAAAAAAAAAAAAAAAAAAAAAAAAAAAAAAAEAAAAAAAAAAAAAACAAAAAAAAAAAAAAAAAAAAAAAAAAAAAAAAAAAAAAAAAAAAAAAAAAAAAAAAAAAAAAAAAAAAAAAAAAAAAAAAAAAAAA==

> <PUBCHEM_IUPAC_OPENEYE_NAME>
deuteron; methane; trichloride

> <PUBCHEM_IUPAC_CAS_NAME>
deuteron; methane; trichloride

> <PUBCHEM_IUPAC_NAME>
deuteron; methane; trichloride

> <PUBCHEM_IUPAC_SYSTEMATIC_NAME>
deuteron; methane; trichloride

> <PUBCHEM_IUPAC_TRADITIONAL_NAME>
deuteron; methane; trichloride

> <PUBCHEM_IUPAC_INCHI>
InChI=1S/CH4.3ClH/h1H4;3*1H/p-2/i/hD

> <PUBCHEM_IUPAC_INCHIKEY>
FXSRQZATDVOERQ-DYCDLGHISA-L

> <PUBCHEM_EXACT_MASS>
122.95196

> <PUBCHEM_MOLECULAR_FORMULA>
CH5Cl3-2

> <PUBCHEM_MOLECULAR_WEIGHT>
124.415562

> <PUBCHEM_OPENEYE_CAN_SMILES>
[H+].C.[Cl-].[Cl-].[Cl-]

> <PUBCHEM_OPENEYE_ISO_SMILES>
[2H+].C.[Cl-].[Cl-].[Cl-]

> <PUBCHEM_CACTVS_TPSA>
0

> <PUBCHEM_MONOISOTOPIC_WEIGHT>
122.95196

> <PUBCHEM_TOTAL_CHARGE>
-2

> <PUBCHEM_HEAVY_ATOM_COUNT>
4

> <PUBCHEM_ATOM_DEF_STEREO_COUNT>
0

> <PUBCHEM_ATOM_UDEF_STEREO_COUNT>
0

> <PUBCHEM_BOND_DEF_STEREO_COUNT>
0

> <PUBCHEM_BOND_UDEF_STEREO_COUNT>
0

> <PUBCHEM_ISOTOPIC_ATOM_COUNT>
1

> <PUBCHEM_COMPONENT_COUNT>
5

> <PUBCHEM_CACTVS_TAUTO_COUNT>
1

> <PUBCHEM_COORDINATE_TYPE>
1
3

$$$$

