438107
  -OEChem-06131118502D

 42 45  0     0  0  0  0  0  0999 V2000
    4.5274    0.0000    0.0000 Si  0  5  0  0  0  0  0  0  0  0  0  0
    6.9836    1.1230    0.0000 F   0  0  0  0  0  0  0  0  0  0  0  0
    6.3146    0.3799    0.0000 F   0  0  0  0  0  0  0  0  0  0  0  0
    6.2134    2.3091    0.0000 F   0  0  0  0  0  0  0  0  0  0  0  0
    5.0274    3.5388    0.0000 F   0  0  0  0  0  0  0  0  0  0  0  0
    5.8934    3.0388    0.0000 F   0  0  0  0  0  0  0  0  0  0  0  0
    4.0274    2.5388    0.0000 F   0  0  0  0  0  0  0  0  0  0  0  0
    2.0711   -1.1230    0.0000 F   0  0  0  0  0  0  0  0  0  0  0  0
    2.7402   -0.3799    0.0000 F   0  0  0  0  0  0  0  0  0  0  0  0
    2.8413   -2.3091    0.0000 F   0  0  0  0  0  0  0  0  0  0  0  0
    4.0274   -3.5388    0.0000 F   0  0  0  0  0  0  0  0  0  0  0  0
    3.1613   -3.0388    0.0000 F   0  0  0  0  0  0  0  0  0  0  0  0
    5.0274   -2.5388    0.0000 F   0  0  0  0  0  0  0  0  0  0  0  0
    3.7183   -0.5878    0.0000 O   0  0  0  0  0  0  0  0  0  0  0  0
    5.3364    0.5878    0.0000 O   0  0  0  0  0  0  0  0  0  0  0  0
    3.7183    0.5878    0.0000 C   0  0  0  0  0  0  0  0  0  0  0  0
    5.3364   -0.5878    0.0000 C   0  0  0  0  0  0  0  0  0  0  0  0
    4.0274   -1.5388    0.0000 C   0  0  0  0  0  0  0  0  0  0  0  0
    5.0274    1.5388    0.0000 C   0  0  0  0  0  0  0  0  0  0  0  0
    5.0274   -1.5388    0.0000 C   0  0  0  0  0  0  0  0  0  0  0  0
    4.0274    1.5388    0.0000 C   0  0  0  0  0  0  0  0  0  0  0  0
    4.0274   -2.5388    0.0000 C   0  0  0  0  0  0  0  0  0  0  0  0
    3.0492   -1.3309    0.0000 C   0  0  0  0  0  0  0  0  0  0  0  0
    5.0274    2.5388    0.0000 C   0  0  0  0  0  0  0  0  0  0  0  0
    6.0055    1.3309    0.0000 C   0  0  0  0  0  0  0  0  0  0  0  0
    2.7029    0.3555    0.0000 C   0  0  0  0  0  0  0  0  0  0  0  0
    6.3518   -0.3555    0.0000 C   0  0  0  0  0  0  0  0  0  0  0  0
    3.3424    2.3236    0.0000 C   0  0  0  0  0  0  0  0  0  0  0  0
    5.7123   -2.3236    0.0000 C   0  0  0  0  0  0  0  0  0  0  0  0
    2.0000    1.1242    0.0000 C   0  0  0  0  0  0  0  0  0  0  0  0
    7.0547   -1.1242    0.0000 C   0  0  0  0  0  0  0  0  0  0  0  0
    2.3219    2.1149    0.0000 C   0  0  0  0  0  0  0  0  0  0  0  0
    6.7328   -2.1149    0.0000 C   0  0  0  0  0  0  0  0  0  0  0  0
    4.5274   -0.6200    0.0000 H   0  0  0  0  0  0  0  0  0  0  0  0
    6.5365    0.2363    0.0000 H   0  0  0  0  0  0  0  0  0  0  0  0
    2.5182   -0.2363    0.0000 H   0  0  0  0  0  0  0  0  0  0  0  0
    5.5139   -2.9110    0.0000 H   0  0  0  0  0  0  0  0  0  0  0  0
    3.5408    2.9110    0.0000 H   0  0  0  0  0  0  0  0  0  0  0  0
    7.6607   -0.9930    0.0000 H   0  0  0  0  0  0  0  0  0  0  0  0
    1.3940    0.9930    0.0000 H   0  0  0  0  0  0  0  0  0  0  0  0
    7.1459   -2.5772    0.0000 H   0  0  0  0  0  0  0  0  0  0  0  0
    1.9088    2.5772    0.0000 H   0  0  0  0  0  0  0  0  0  0  0  0
  1 14  1  0  0  0  0
  1 15  1  0  0  0  0
  1 16  1  0  0  0  0
  1 17  1  0  0  0  0
  1 34  1  0  0  0  0
  2 25  1  0  0  0  0
  3 25  1  0  0  0  0
  4 25  1  0  0  0  0
  5 24  1  0  0  0  0
  6 24  1  0  0  0  0
  7 24  1  0  0  0  0
  8 23  1  0  0  0  0
  9 23  1  0  0  0  0
 10 23  1  0  0  0  0
 11 22  1  0  0  0  0
 12 22  1  0  0  0  0
 13 22  1  0  0  0  0
 14 18  1  0  0  0  0
 15 19  1  0  0  0  0
 16 21  1  0  0  0  0
 16 26  2  0  0  0  0
 17 20  1  0  0  0  0
 17 27  2  0  0  0  0
 18 20  1  0  0  0  0
 18 22  1  0  0  0  0
 18 23  1  0  0  0  0
 19 21  1  0  0  0  0
 19 24  1  0  0  0  0
 19 25  1  0  0  0  0
 20 29  2  0  0  0  0
 21 28  2  0  0  0  0
 26 30  1  0  0  0  0
 26 36  1  0  0  0  0
 27 31  1  0  0  0  0
 27 35  1  0  0  0  0
 28 32  1  0  0  0  0
 28 38  1  0  0  0  0
 29 33  1  0  0  0  0
 29 37  1  0  0  0  0
 30 32  2  0  0  0  0
 30 40  1  0  0  0  0
 31 33  2  0  0  0  0
 31 39  1  0  0  0  0
 32 42  1  0  0  0  0
 33 41  1  0  0  0  0
M  CHG  1   1  -1
M  END
> <PUBCHEM_COMPOUND_CID>
438107

> <PUBCHEM_COMPOUND_CANONICALIZED>
1

> <PUBCHEM_CACTVS_COMPLEXITY>
678

> <PUBCHEM_CACTVS_HBOND_ACCEPTOR>
15

> <PUBCHEM_CACTVS_HBOND_DONOR>
0

> <PUBCHEM_CACTVS_ROTATABLE_BOND>
0

> <PUBCHEM_CACTVS_SUBSKEYS>
AAADccB4McgAAAAAAAAAAAAAAAAAASJAAAAwYAAAAAAAAEgBQAAAGxAAAECADESAuBAwAIAAAAGAAiBCAAACAAAgAAAIiAAACIgIJiKAERCAMAAkwAEIiAeAwOAOgAAAAAAAAAAAAAAAAAAAAAAAAAAAAA==

> <PUBCHEM_IUPAC_OPENEYE_NAME>
9,9,9',9'-tetrakis(trifluoromethyl)-7,7'-spirobi[8-oxa-7-silanuidabicyclo[4.3.0]nona-1,3,5-triene]

> <PUBCHEM_IUPAC_CAS_NAME>
9,9,9',9'-tetrakis(trifluoromethyl)-7,7'-spirobi[8-oxa-7-silanuidabicyclo[4.3.0]nona-1,3,5-triene]

> <PUBCHEM_IUPAC_NAME>
9,9,9',9'-tetrakis(trifluoromethyl)-7,7'-spirobi[8-oxa-7-silanuidabicyclo[4.3.0]nona-1,3,5-triene]

> <PUBCHEM_IUPAC_SYSTEMATIC_NAME>
9,9,9',9'-tetrakis(trifluoromethyl)-7,7'-spirobi[8-oxa-7-silanuidabicyclo[4.3.0]nona-1,3,5-triene]

> <PUBCHEM_IUPAC_TRADITIONAL_NAME>
9,9,9',9'-tetrakis(trifluoromethyl)-7,7'-spirobi[8-oxa-7-silanuidabicyclo[4.3.0]nona-1,3,5-triene]

> <PUBCHEM_IUPAC_INCHI>
InChI=1S/C18H9F12O2Si/c19-15(20,21)13(16(22,23)24)9-5-1-3-7-11(9)33(31-13)12-8-4-2-6-10(12)14(32-33,17(25,26)27)18(28,29)30/h1-8,33H/q-1

> <PUBCHEM_IUPAC_INCHIKEY>
IJAMTKKRLIDMCC-UHFFFAOYSA-N

> <PUBCHEM_EXACT_MASS>
513.018019

> <PUBCHEM_MOLECULAR_FORMULA>
C18H9F12O2Si-

> <PUBCHEM_MOLECULAR_WEIGHT>
513.329198

> <PUBCHEM_OPENEYE_CAN_SMILES>
C1=CC=C2C(=C1)C(O[SiH-]23C4=CC=CC=C4C(O3)(C(F)(F)F)C(F)(F)F)(C(F)(F)F)C(F)(F)F

> <PUBCHEM_OPENEYE_ISO_SMILES>
C1=CC=C2C(=C1)C(O[SiH-]23C4=CC=CC=C4C(O3)(C(F)(F)F)C(F)(F)F)(C(F)(F)F)C(F)(F)F

> <PUBCHEM_CACTVS_TPSA>
18.5

> <PUBCHEM_MONOISOTOPIC_WEIGHT>
513.018019

> <PUBCHEM_TOTAL_CHARGE>
-1

> <PUBCHEM_HEAVY_ATOM_COUNT>
33

> <PUBCHEM_ATOM_DEF_STEREO_COUNT>
0

> <PUBCHEM_ATOM_UDEF_STEREO_COUNT>
0

> <PUBCHEM_BOND_DEF_STEREO_COUNT>
0

> <PUBCHEM_BOND_UDEF_STEREO_COUNT>
0

> <PUBCHEM_ISOTOPIC_ATOM_COUNT>
0

> <PUBCHEM_COMPONENT_COUNT>
1

> <PUBCHEM_CACTVS_TAUTO_COUNT>
1

> <PUBCHEM_COORDINATE_TYPE>
1
5
255

> <PUBCHEM_BONDANNOTATIONS>
16  21  8
16  26  8
17  20  8
17  27  8
20  29  8
21  28  8
26  30  8
27  31  8
28  32  8
29  33  8
30  32  8
31  33  8

$$$$

