
  -INDIGO-10082014502D

  0  0  0  0  0  0  0  0  0  0999 V2000
M  END
>  <DSSTox_RID>
20385

>  <DSSTox_Generic_SID>
20385

>  <DSSTox_FileID>
401_CPDBAS_v5d

>  <STRUCTURE_ChemicalType>
no structure

>  <STRUCTURE_Shown>
no structure

>  <TestSubstance_ChemicalName>
Dextran

>  <TestSubstance_CASRN>
9004-54-0

>  <TestSubstance_Description>
macromolecule

>  <STRUCTURE_InChI>
InChI=1//

>  <STRUCTURE_InChIKey>
MOSFIJXAXDLOML-UHFFFAOYAM

>  <StudyType>
Carcinogenicity

>  <Endpoint>
TD50; Tumor Target Sites

>  <Species>
rat

>  <ActivityScore_CPDBAS_Rat>
0

>  <TD50_Rat_Note>
no positive results

>  <TargetSites_Rat_Male>
no positive results

>  <TargetSites_Rat_Female>
no positive results

>  <ActivityOutcome_CPDBAS_Rat>
inactive

>  <ActivityOutcome_CPDBAS_SingleCellCall>
inactive

>  <ActivityOutcome_CPDBAS_MultiCellCall>
inactive

>  <ActivityOutcome_CPDBAS_MultiCellCall_Details>
multisex inactive

>  <ChemicalPage_URL>
http://potency.berkeley.edu/chempages/DEXTRAN.html

$$$$

  -INDIGO-10082014502D

  0  0  0  0  0  0  0  0  0  0999 V2000
M  END
>  <DSSTox_RID>
20386

>  <DSSTox_Generic_SID>
20386

>  <DSSTox_FileID>
402_CPDBAS_v5d

>  <STRUCTURE_ChemicalType>
no structure

>  <STRUCTURE_Shown>
no structure

>  <TestSubstance_ChemicalName>
Dextran sulfate sodium (DS-M-1)

>  <TestSubstance_CASRN>
9011-18-1

>  <TestSubstance_Description>
macromolecule

>  <STRUCTURE_InChI>
InChI=1//

>  <STRUCTURE_InChIKey>
MOSFIJXAXDLOML-UHFFFAOYAM

>  <StudyType>
Carcinogenicity

>  <Endpoint>
TD50; Tumor Target Sites

>  <Species>
rat

>  <TD50_Rat_mg>
196

>  <ActivityScore_CPDBAS_Rat>
50

>  <TD50_Rat_Note>
TD50 is harmonic mean of more than one positive test; TD50_Rat_mmol was not calculated for this mixture, but Activiity Score is assigned value of "50" to indicate active

>  <TargetSites_Rat_Male>
large intestine

>  <TargetSites_Rat_Female>
large intestine

>  <ActivityOutcome_CPDBAS_Rat>
active

>  <ActivityOutcome_CPDBAS_SingleCellCall>
active

>  <ActivityOutcome_CPDBAS_MultiCellCall>
active

>  <ActivityOutcome_CPDBAS_MultiCellCall_Details>
multisex active

>  <Note_CPDBAS>
TD50_Rat_mmol conversion from mg value not provided due substance being a macromolecule

>  <ChemicalPage_URL>
http://potency.berkeley.edu/chempages/DEXTRAN%20SULFATE%20SODIUM%20(DS-M-1).html

$$$$

  -INDIGO-10082014502D

  0  0  0  0  0  0  0  0  0  0999 V2000
M  END
>  <DSSTox_RID>
20387

>  <DSSTox_Generic_SID>
20387

>  <DSSTox_FileID>
403_CPDBAS_v5d

>  <STRUCTURE_ChemicalType>
no structure

>  <STRUCTURE_Shown>
no structure

>  <TestSubstance_ChemicalName>
Dextran sulfate sodium (DST-H)

>  <TestSubstance_CASRN>
9011-18-1

>  <TestSubstance_Description>
macromolecule

>  <STRUCTURE_InChI>
InChI=1//

>  <STRUCTURE_InChIKey>
MOSFIJXAXDLOML-UHFFFAOYAM

>  <StudyType>
Carcinogenicity

>  <Endpoint>
TD50; Tumor Target Sites

>  <Species>
rat

>  <ActivityScore_CPDBAS_Rat>
0

>  <TD50_Rat_Note>
no positive results

>  <TargetSites_Rat_Male>
no positive results

>  <TargetSites_Rat_Female>
no positive results

>  <ActivityOutcome_CPDBAS_Rat>
inactive

>  <ActivityOutcome_CPDBAS_SingleCellCall>
inactive

>  <ActivityOutcome_CPDBAS_MultiCellCall>
inactive

>  <ActivityOutcome_CPDBAS_MultiCellCall_Details>
multisex inactive

>  <ChemicalPage_URL>
http://potency.berkeley.edu/chempages/DEXTRAN%20SULFATE%20SODIUM%20(DST-H).html

$$$$

  -INDIGO-10082014502D

  0  0  0  0  0  0  0  0  0  0999 V2000
M  END
>  <DSSTox_RID>
20388

>  <DSSTox_Generic_SID>
20388

>  <DSSTox_FileID>
404_CPDBAS_v5d

>  <STRUCTURE_ChemicalType>
no structure

>  <STRUCTURE_Shown>
no structure

>  <TestSubstance_ChemicalName>
Dextran sulfate sodium (KMDS-H)

>  <TestSubstance_CASRN>
9011-18-1

>  <TestSubstance_Description>
macromolecule

>  <STRUCTURE_InChI>
InChI=1//

>  <STRUCTURE_InChIKey>
MOSFIJXAXDLOML-UHFFFAOYAM

>  <StudyType>
Carcinogenicity

>  <Endpoint>
TD50; Tumor Target Sites

>  <Species>
rat

>  <ActivityScore_CPDBAS_Rat>
0

>  <TD50_Rat_Note>
no positive results

>  <TargetSites_Rat_Male>
no positive results

>  <TargetSites_Rat_Female>
no positive results

>  <ActivityOutcome_CPDBAS_Rat>
inactive

>  <ActivityOutcome_CPDBAS_SingleCellCall>
inactive

>  <ActivityOutcome_CPDBAS_MultiCellCall>
inactive

>  <ActivityOutcome_CPDBAS_MultiCellCall_Details>
multisex inactive

>  <ChemicalPage_URL>
http://potency.berkeley.edu/chempages/DEXTRAN%20SULFATE%20SODIUM%20(KMDS-H).html

$$$$
